
No compatibility mode selected!


Circuit: 

Doing analysis at TEMP = 14.019473 and TNOM = 27.000000

Warning: toxe, toxp and dtox all given and toxe != toxp + dtox; dtox ignored.

No. of Data Rows : 1
Doing analysis at TEMP = 14.019473 and TNOM = 27.000000

Warning: toxe, toxp and dtox all given and toxe != toxp + dtox; dtox ignored.
(-(v(supply)*i(vdd))) = 4.557143e-07
